Version 4
SHEET 1 880 680
WIRE -64 -1488 -112 -1488
WIRE -16 -1488 -64 -1488
WIRE -320 -1472 -352 -1472
WIRE -272 -1472 -320 -1472
WIRE -352 -1424 -352 -1472
WIRE -272 -1424 -272 -1472
WIRE -112 -1424 -112 -1488
WIRE -16 -1424 -16 -1488
WIRE -352 -1328 -352 -1344
WIRE -272 -1328 -272 -1344
WIRE -272 -1328 -352 -1328
WIRE -112 -1328 -112 -1344
WIRE -16 -1328 -16 -1344
WIRE -16 -1328 -112 -1328
WIRE -272 -1312 -272 -1328
WIRE -112 -1312 -112 -1328
WIRE 432 -544 320 -544
WIRE 704 -544 512 -544
WIRE 320 -512 320 -544
WIRE 704 -512 704 -544
WIRE 320 -400 320 -432
WIRE 384 -400 320 -400
WIRE 704 -400 704 -432
WIRE 704 -400 608 -400
WIRE 384 -320 320 -320
WIRE 624 -320 608 -320
WIRE 720 -320 688 -320
WIRE 384 -240 352 -240
WIRE 640 -240 608 -240
WIRE 384 -160 336 -160
WIRE 784 -160 608 -160
WIRE 784 -128 784 -160
WIRE 336 -16 336 -160
WIRE 784 -16 784 -48
WIRE 784 -16 336 -16
FLAG -272 -1312 0
FLAG -112 -1312 0
FLAG -64 -1488 5v
FLAG -320 -1472 -5v
FLAG 352 -240 5v
FLAG 640 -240 -5v
FLAG 720 -320 0
FLAG 320 -320 0
SYMBOL FilterProducts\\LT6600-15 496 -272 R0
SYMATTR InstName U1
SYMBOL voltage -272 -1440 R0
WINDOW 123 0 0 Left 0
WINDOW 39 0 0 Left 0
SYMATTR InstName V2
SYMATTR Value -5v
SYMBOL voltage -112 -1440 R0
WINDOW 123 0 0 Left 0
WINDOW 39 0 0 Left 0
SYMATTR InstName V3
SYMATTR Value 5v
SYMBOL res -368 -1440 R0
SYMATTR InstName R2
SYMATTR Value 100k
SYMBOL res -32 -1440 R0
SYMATTR InstName R3
SYMATTR Value 100k
SYMBOL cap 688 -336 R90
WINDOW 0 0 32 VBottom 2
WINDOW 3 32 32 VTop 2
SYMATTR InstName C1
SYMATTR Value 100n
SYMBOL res 768 -144 R0
SYMATTR InstName R4
SYMATTR Value 50
SYMBOL res 688 -528 R0
SYMATTR InstName R5
SYMATTR Value 536
SYMBOL res 304 -528 R0
SYMATTR InstName R6
SYMATTR Value 536
SYMBOL current 432 -544 R270
WINDOW 0 32 40 VTop 2
WINDOW 3 -32 40 VBottom 2
WINDOW 123 4 40 VTop 2
WINDOW 39 0 0 Left 0
SYMATTR InstName I1
SYMATTR Value SINE(0 20m 15meg)
SYMATTR Value2 AC 20M
TEXT 136 376 Left 2 !.ac dec 100 1k 100meg
