Version 4
SHEET 1 2948 680
WIRE 272 -656 0 -656
WIRE 1168 -656 272 -656
WIRE 0 -624 0 -656
WIRE 352 -512 160 -512
WIRE 624 -512 352 -512
WIRE 0 -496 0 -544
WIRE 160 -496 160 -512
WIRE 160 -496 0 -496
WIRE 272 -416 272 -656
WIRE 352 -416 352 -512
WIRE 272 -320 272 -336
WIRE 352 -320 352 -336
WIRE 624 -256 624 -512
WIRE 1168 -224 1168 -656
WIRE 16 -160 -32 -160
WIRE 64 -160 16 -160
WIRE 624 -160 624 -256
WIRE -240 -144 -272 -144
WIRE -192 -144 -240 -144
WIRE 1168 -128 1168 -224
WIRE -272 -96 -272 -144
WIRE -192 -96 -192 -144
WIRE -32 -96 -32 -160
WIRE 64 -96 64 -160
WIRE 624 -16 624 -80
WIRE 848 -16 624 -16
WIRE 1168 -16 1168 -48
WIRE 1168 -16 1072 -16
WIRE -272 0 -272 -16
WIRE -192 0 -192 -16
WIRE -192 0 -272 0
WIRE -32 0 -32 -16
WIRE 64 0 64 -16
WIRE 64 0 -32 0
WIRE -192 16 -192 0
WIRE -32 16 -32 0
WIRE 848 64 672 64
WIRE 1184 64 1072 64
WIRE 1696 112 1600 112
WIRE 1888 112 1776 112
WIRE 848 144 816 144
WIRE 1104 144 1072 144
WIRE 1712 208 1712 176
WIRE 848 224 800 224
WIRE 1168 224 1072 224
WIRE 1440 224 1168 224
WIRE 1584 224 1520 224
WIRE 1600 224 1600 112
WIRE 1600 224 1584 224
WIRE 1584 256 1584 224
WIRE 1680 256 1584 256
WIRE 1888 288 1888 112
WIRE 1888 288 1824 288
WIRE 1904 288 1888 288
WIRE 2032 288 1984 288
WIRE 1680 320 1600 320
WIRE 2032 320 2032 288
WIRE 800 368 800 224
WIRE 1136 368 800 368
WIRE 1456 368 1136 368
WIRE 1600 368 1600 320
WIRE 1600 368 1536 368
WIRE 1760 400 1760 368
WIRE 1712 416 1712 368
WIRE 2032 432 2032 400
WIRE 1600 480 1600 448
FLAG -192 16 0
FLAG -32 16 0
FLAG 16 -160 5v
FLAG -240 -144 -5v
FLAG 816 144 5v
FLAG 1104 144 -5v
FLAG 1184 64 0
FLAG 672 64 0
FLAG 1168 224 om
FLAG 1136 368 op
FLAG 1168 -224 iouta
FLAG 2032 432 0
FLAG 1712 416 -5v
FLAG 1712 176 5v
FLAG 1760 400 5v
FLAG 1600 480 0
FLAG 2032 288 out
FLAG 272 -320 0
FLAG 352 -320 0
FLAG 624 -256 ioutb
SYMBOL FilterProducts\\LT6600-15 960 112 R0
SYMATTR InstName U1
SYMBOL voltage -192 -112 R0
WINDOW 123 0 0 Left 0
WINDOW 39 0 0 Left 0
SYMATTR InstName V2
SYMATTR Value -5v
SYMBOL voltage -32 -112 R0
WINDOW 123 0 0 Left 0
WINDOW 39 0 0 Left 0
SYMATTR InstName V3
SYMATTR Value 5v
SYMBOL res -288 -112 R0
SYMATTR InstName R2
SYMATTR Value 100k
SYMBOL res 48 -112 R0
SYMATTR InstName R3
SYMATTR Value 100k
SYMBOL res 1152 -144 R0
SYMATTR InstName R5
SYMATTR Value 486
SYMBOL res 608 -176 R0
SYMATTR InstName R1
SYMATTR Value 486
SYMBOL Opamps\\LTC6228 1712 288 R0
SYMATTR InstName U2
SYMBOL res 1536 208 R90
WINDOW 0 0 56 VBottom 2
WINDOW 3 32 56 VTop 2
SYMATTR InstName R4
SYMATTR Value 160
SYMBOL res 1440 384 R270
WINDOW 0 32 56 VTop 2
WINDOW 3 0 56 VBottom 2
SYMATTR InstName R6
SYMATTR Value 160
SYMBOL res 1888 304 R270
WINDOW 0 32 56 VTop 2
WINDOW 3 0 56 VBottom 2
SYMATTR InstName R7
SYMATTR Value 50
SYMBOL res 1792 96 R90
WINDOW 0 0 56 VBottom 2
WINDOW 3 32 56 VTop 2
SYMATTR InstName R8
SYMATTR Value 1k
SYMBOL res 2016 304 R0
SYMATTR InstName R9
SYMATTR Value 50
SYMBOL res 1616 464 R180
WINDOW 0 36 76 Left 2
WINDOW 3 36 40 Left 2
SYMATTR InstName R10
SYMATTR Value 1k
SYMBOL res 256 -432 R0
SYMATTR InstName R13
SYMATTR Value 50
SYMBOL res 336 -432 R0
SYMATTR InstName R15
SYMATTR Value 50
SYMBOL voltage 0 -640 R0
WINDOW 123 24 44 Left 2
WINDOW 39 0 0 Left 0
SYMATTR InstName i1
SYMATTR Value ""
SYMATTR Value2 AC 20m
TEXT 256 32 Left 2 !.ac dec 100 10k 100meg
