Version 4
SHEET 1 2948 680
WIRE 1744 -512 1680 -512
WIRE 2208 -512 1744 -512
WIRE 2208 -480 2208 -512
WIRE 1888 -368 1824 -368
WIRE 2208 -368 2208 -400
WIRE 2208 -368 2112 -368
WIRE 1312 -320 1168 -320
WIRE 1536 -320 1392 -320
WIRE 1888 -288 1824 -288
WIRE 2128 -288 2112 -288
WIRE 2224 -288 2192 -288
WIRE 1888 -208 1856 -208
WIRE 2144 -208 2112 -208
WIRE 16 -160 -32 -160
WIRE 64 -160 16 -160
WIRE 720 -160 624 -160
WIRE 848 -160 720 -160
WIRE 992 -160 848 -160
WIRE 1168 -160 1168 -320
WIRE 1168 -160 1072 -160
WIRE -240 -144 -272 -144
WIRE -192 -144 -240 -144
WIRE 1344 -144 1344 -176
WIRE 624 -128 624 -160
WIRE 1888 -128 1840 -128
WIRE 2208 -128 2112 -128
WIRE 2320 -128 2208 -128
WIRE -272 -96 -272 -144
WIRE -192 -96 -192 -144
WIRE -32 -96 -32 -160
WIRE 64 -96 64 -160
WIRE 1168 -96 1168 -160
WIRE 1312 -96 1168 -96
WIRE 2320 -80 2320 -128
WIRE 1536 -64 1536 -320
WIRE 1536 -64 1456 -64
WIRE 1680 -64 1680 -512
WIRE 1680 -64 1536 -64
WIRE 1312 -32 1120 -32
WIRE 624 -16 624 -48
WIRE 720 -16 624 -16
WIRE 752 -16 720 -16
WIRE 1024 -16 752 -16
WIRE 1120 -16 1120 -32
WIRE 1120 -16 1104 -16
WIRE -272 0 -272 -16
WIRE -192 0 -192 -16
WIRE -192 0 -272 0
WIRE -32 0 -32 -16
WIRE 64 0 64 -16
WIRE 64 0 -32 0
WIRE -192 16 -192 0
WIRE -32 16 -32 0
WIRE 752 16 752 -16
WIRE 768 16 752 16
WIRE 848 16 848 -160
WIRE 848 16 832 16
WIRE 1840 16 1840 -128
WIRE 2176 16 1840 16
WIRE 2320 16 2320 0
WIRE 2320 16 2192 16
WIRE 752 48 752 16
WIRE 848 48 848 16
WIRE 1344 48 1344 16
WIRE 1392 48 1392 16
WIRE 1120 96 1120 64
WIRE 752 160 752 128
WIRE 848 160 848 128
FLAG -192 16 0
FLAG -32 16 0
FLAG 16 -160 5v
FLAG -240 -144 -5v
FLAG 1856 -208 5v
FLAG 2144 -208 -5v
FLAG 2224 -288 0
FLAG 1824 -288 0
FLAG 1344 48 -5v
FLAG 1344 -176 5v
FLAG 1392 48 5v
FLAG 2208 -128 om
FLAG 2176 16 op
FLAG 720 -160 iouta
FLAG 720 -16 ioutb
FLAG 1120 96 0
FLAG 752 160 0
FLAG 848 160 0
FLAG 1824 -368 0
FLAG 1744 -512 out1
SYMBOL FilterProducts\\LT6600-15 2000 -240 R0
SYMATTR InstName U1
SYMBOL voltage -192 -112 R0
WINDOW 123 0 0 Left 0
WINDOW 39 0 0 Left 0
SYMATTR InstName V2
SYMATTR Value -5v
SYMBOL voltage -32 -112 R0
WINDOW 123 0 0 Left 0
WINDOW 39 0 0 Left 0
SYMATTR InstName V3
SYMATTR Value 5v
SYMBOL res -288 -112 R0
SYMATTR InstName R2
SYMATTR Value 100k
SYMBOL res 48 -112 R0
SYMATTR InstName R3
SYMATTR Value 100k
SYMBOL cap 2192 -304 R90
WINDOW 0 0 32 VBottom 2
WINDOW 3 32 32 VTop 2
SYMATTR InstName C1
SYMATTR Value 100n
SYMBOL res 2192 -496 R0
SYMATTR InstName R5
SYMATTR Value {RIN}
SYMBOL current 624 -48 R180
WINDOW 0 32 40 VTop 2
WINDOW 3 -32 40 VBottom 2
WINDOW 123 0 0 Left 0
WINDOW 39 0 0 Left 0
SYMATTR InstName i1
SYMATTR Value SINE(0 20m 15meg)
SYMBOL Opamps\\LTC6228 1344 -64 R0
SYMATTR InstName U2
SYMBOL res 1088 -176 R90
WINDOW 0 0 56 VBottom 2
WINDOW 3 32 56 VTop 2
SYMATTR InstName R4
SYMATTR Value 225
SYMBOL res 1408 -336 R90
WINDOW 0 0 56 VBottom 2
WINDOW 3 32 56 VTop 2
SYMATTR InstName R7
SYMATTR Value 500
SYMBOL res 1120 -32 R90
WINDOW 0 0 56 VBottom 2
WINDOW 3 32 56 VTop 2
SYMATTR InstName R8
SYMATTR Value 225
SYMBOL res 2336 16 R180
WINDOW 0 36 76 Left 2
WINDOW 3 36 40 Left 2
SYMATTR InstName R10
SYMATTR Value 50
SYMBOL res 1104 -32 R0
SYMATTR InstName R13
SYMATTR Value 500
SYMBOL res 832 32 R0
SYMATTR InstName R1
SYMBOL res 736 32 R0
SYMATTR InstName R9
SYMBOL cap 832 0 R90
WINDOW 0 0 32 VBottom 2
WINDOW 3 32 32 VTop 2
SYMATTR InstName C2
SYMATTR Value 18p
TEXT -232 -520 Left 2 !.tran 0 5u 2u 1n
TEXT -248 -448 Left 2 !.step param RIN list 536 268 134 67
