Version 4
SHEET 1 1684 680
WIRE -576 -128 -1136 -128
WIRE -256 -48 -288 -48
WIRE 32 -48 -176 -48
WIRE 160 -48 32 -48
WIRE 224 -48 160 -48
WIRE 384 -48 224 -48
WIRE 864 -48 464 -48
WIRE -1136 -16 -1136 -128
WIRE -1088 -16 -1136 -16
WIRE -800 -16 -1088 -16
WIRE 32 0 32 -48
WIRE -800 16 -832 16
WIRE -576 32 -576 -128
WIRE -576 32 -624 32
WIRE -544 32 -576 32
WIRE -800 48 -912 48
WIRE -1136 64 -1136 -16
WIRE -256 112 -288 112
WIRE 32 112 32 64
WIRE 32 112 -176 112
WIRE 224 112 32 112
WIRE 384 112 224 112
WIRE 512 112 464 112
WIRE -912 144 -912 48
WIRE 32 144 32 112
WIRE 160 144 160 -48
WIRE -1136 240 -1136 144
WIRE -912 240 -912 224
WIRE 512 272 512 112
WIRE 576 272 512 272
WIRE 864 272 864 -48
WIRE 864 272 800 272
WIRE 1408 288 1376 288
WIRE 1472 288 1408 288
WIRE 1376 320 1376 288
WIRE 576 352 512 352
WIRE 816 352 800 352
WIRE 832 352 816 352
WIRE -1136 432 -1136 416
WIRE -1024 432 -1024 416
WIRE 576 432 544 432
WIRE 832 432 800 432
WIRE 1408 496 1376 496
WIRE 1472 496 1408 496
WIRE 576 512 528 512
WIRE 880 512 800 512
WIRE 944 512 880 512
WIRE 1088 512 1024 512
WIRE 1376 528 1376 496
WIRE 528 624 528 512
WIRE 880 624 528 624
WIRE 944 624 880 624
WIRE 1088 624 1024 624
FLAG -912 240 0
FLAG -1136 240 0
FLAG -832 16 0
FLAG -544 32 dac_out
FLAG -1088 -16 in
FLAG -288 112 0
FLAG -288 -48 0
FLAG 32 224 0
FLAG 160 224 0
FLAG 224 -48 VdacA
FLAG 224 112 VdacB
FLAG -1136 512 0
FLAG -1136 416 5v
FLAG -1024 512 0
FLAG -1024 416 -5v
FLAG 544 432 5v
FLAG 832 432 -5v
FLAG 512 352 0
FLAG 896 352 0
FLAG 880 624 outA
FLAG 880 512 outB
FLAG 1376 608 0
FLAG 1088 512 0
FLAG 1088 624 0
FLAG 1408 496 out
FLAG 1376 400 0
FLAG 1408 288 Vdac
FLAG 816 352 0
SYMBOL SpecialFunctions\\sample -720 16 R0
SYMATTR InstName A1
SYMBOL voltage -912 128 R0
WINDOW 123 0 0 Left 2
WINDOW 39 0 0 Left 2
SYMATTR InstName V1
SYMATTR Value PULSE(0 5 0 1n 1n {0.5/fclk} {1/fclk})
SYMBOL voltage -1136 48 R0
WINDOW 3 -323 47 Left 2
WINDOW 123 -92 74 Left 2
WINDOW 39 0 0 Left 2
SYMATTR InstName V2
SYMATTR Value SINE(0.5 0.5 {fin})
SYMATTR Value2 AC 1
SYMBOL bi -256 -48 R270
WINDOW 0 32 40 VTop 2
WINDOW 3 -32 40 VBottom 2
SYMATTR InstName IdacA
SYMATTR Value I=V(dac_out)*ioutmax
SYMBOL bi -256 112 R270
WINDOW 0 32 40 VTop 2
WINDOW 3 -32 40 VBottom 2
SYMATTR InstName IdacB
SYMATTR Value I=(1-V(dac_out))*ioutmax
SYMBOL res 16 128 R0
SYMATTR InstName R1
SYMATTR Value {Rload}
SYMBOL res 144 128 R0
SYMATTR InstName R2
SYMATTR Value {Rload}
SYMBOL FilterProducts\\LT6600-15 688 400 R0
SYMATTR InstName U1
SYMBOL voltage -1136 416 R0
WINDOW 123 0 0 Left 2
WINDOW 39 0 0 Left 2
SYMATTR InstName V3
SYMATTR Value 5
SYMBOL voltage -1024 416 R0
WINDOW 123 0 0 Left 2
WINDOW 39 0 0 Left 2
SYMATTR InstName V4
SYMATTR Value -5
SYMBOL cap 896 336 R90
WINDOW 0 0 32 VBottom 2
WINDOW 3 32 32 VTop 2
SYMATTR InstName C1
SYMATTR Value 100n
SYMBOL res 480 96 R90
WINDOW 0 0 56 VBottom 2
WINDOW 3 32 56 VTop 2
SYMATTR InstName R3
SYMATTR Value {Rin}
SYMBOL res 480 -64 R90
WINDOW 0 0 56 VBottom 2
WINDOW 3 32 56 VTop 2
SYMATTR InstName R4
SYMATTR Value {Rin}
SYMBOL res 1040 496 R90
WINDOW 0 0 56 VBottom 2
WINDOW 3 32 56 VTop 2
SYMATTR InstName R5
SYMATTR Value {Rout}
SYMBOL res 1040 608 R90
WINDOW 0 0 56 VBottom 2
WINDOW 3 32 56 VTop 2
SYMATTR InstName R6
SYMATTR Value {Rout}
SYMBOL bv 1376 512 R0
SYMATTR InstName B1
SYMATTR Value V=V(outA)-V(outB)
SYMBOL bv 1376 304 R0
SYMATTR InstName B2
SYMATTR Value V=V(VdacA)-V(VdacB)
SYMBOL cap 16 0 R0
SYMATTR InstName C2
SYMATTR Value {Cload}
TEXT -288 512 Left 2 !.param fclk 40Meg
TEXT -288 488 Left 2 !.param fin 15Meg
TEXT -708 484 Left 2 !.tran 0 50u 10u
TEXT -288 536 Left 2 !.param ioutmax 20m
TEXT -288 560 Left 2 !.param Rload 25
TEXT -288 608 Left 2 !.param Rin 402
TEXT -288 584 Left 2 !.param Cload 100p
TEXT -8 584 Left 2 ;.step param Cload list 1f 100p
TEXT -704 512 Left 2 !;ac dec 50 1 100Meg
TEXT -288 632 Left 2 !.param Rout 200Meg
TEXT -8 488 Left 2 ;.step param fin list 5Meg 15Meg
TEXT -8 608 Left 2 !.step param Rin list 402 560 1k
